/*--------------------------------*- C++ -*----------------------------------*\
  =========                 |
  \\      /  F ield         | OpenFOAM: The Open Source CFD Toolbox
   \\    /   O peration     | Website:  https://openfoam.org
    \\  /    A nd           | Version:  7
     \\/     M anipulation  |
\*---------------------------------------------------------------------------*/
FoamFile
{
    version     2.0;
    format      ascii;
    class       extendedFeatureEdgeMesh;
    location    "constant/extendedFeatureEdgeMesh";
    object      CETO.extendedFeatureEdgeMesh;
}
// * * * * * * * * * * * * * * * * * * * * * * * * * * * * * * * * * * * * * //

// points

1022
(
(90.8006973267 -0.966888010502 -6.25)
(91.5 0 -7)
(91.5466003418 -0.888491988182 -7)
(90.0548019409 -1.04527997971 -5.5)
(90.75 0 -6.25)
(90.0548019409 -1.04527997971 -4)
(90 0 -5.5)
(90.0548019409 -1.04527997971 -2.5)
(90 0 -4)
(90.8006973267 -0.966888010502 -1.75)
(90 0 -2.5)
(91.5466003418 -0.888491988182 -1)
(90.75 0 -1.75)
(90.9521026611 -1.92317998409 -6.25)
(91.6856994629 -1.76724994183 -7)
(90.21849823 -2.07911992073 -5.5)
(90.21849823 -2.07911992073 -4)
(90.21849823 -2.07911992073 -2.5)
(90.9521026611 -1.92317998409 -1.75)
(91.6856994629 -1.76724994183 -1)
(91.2026977539 -2.85840988159 -6.25)
(91.9160003662 -2.62664008141 -7)
(90.489402771 -3.09016990662 -5.5)
(90.489402771 -3.09016990662 -4)
(90.489402771 -3.09016990662 -2.5)
(91.2026977539 -2.85840988159 -1.75)
(91.9160003662 -2.62664008141 -1)
(91.549697876 -3.76231002808 -6.25)
(92.2349014282 -3.45725989342 -7)
(90.8645019531 -4.0673699379 -5.5)
(90.8645019531 -4.0673699379 -4)
(90.8645019531 -4.0673699379 -2.5)
(91.549697876 -3.76231002808 -1.75)
(92.2349014282 -3.45725989342 -1)
(91.9893035889 -4.625 -6.25)
(92.6388015747 -4.25 -7)
(91.3396987915 -5 -5.5)
(91.3396987915 -5 -4)
(91.3396987915 -5 -2.5)
(91.9893035889 -4.625 -1.75)
(92.6388015747 -4.25 -1)
(92.5166015625 -5.4370098114 -6.25)
(93.1233978271 -4.99617004395 -7)
(91.9097976685 -5.87785005569 -5.5)
(91.9097976685 -5.87785005569 -4)
(91.9097976685 -5.87785005569 -2.5)
(92.5166015625 -5.4370098114 -1.75)
(93.1233978271 -4.99617004395 -1)
(93.1259002686 -6.18945980072 -6.25)
(93.6832962036 -5.68761014938 -7)
(92.5686035156 -6.69130992889 -5.5)
(92.5686035156 -6.69130992889 -4)
(92.5686035156 -6.69130992889 -2.5)
(93.1259002686 -6.18945980072 -1.75)
(93.6832962036 -5.68761014938 -1)
(93.8105010986 -6.8740901947 -6.25)
(94.3124008179 -6.31673002243 -7)
(93.3087005615 -7.43144989014 -5.5)
(93.3087005615 -7.43144989014 -4)
(93.3087005615 -7.43144989014 -2.5)
(93.8105010986 -6.8740901947 -1.75)
(94.3124008179 -6.31673002243 -1)
(94.56300354 -7.48340988159 -6.25)
(95.0037994385 -6.87663984299 -7)
(94.1221008301 -8.09016990662 -5.5)
(94.1221008301 -8.09016990662 -4)
(94.1221008301 -8.09016990662 -2.5)
(94.56300354 -7.48340988159 -1.75)
(95.0037994385 -6.87663984299 -1)
(95.375 -8.01072978973 -6.25)
(95.75 -7.36121988297 -7)
(95 -8.66024971008 -5.5)
(95 -8.66024971008 -4)
(95 -8.66024971008 -2.5)
(95.375 -8.01072978973 -1.75)
(95.75 -7.36121988297 -1)
(96.237701416 -8.45030021667 -6.25)
(96.5427017212 -7.76514005661 -7)
(95.9326019287 -9.1354598999 -5.5)
(95.9326019287 -9.1354598999 -4)
(95.9326019287 -9.1354598999 -2.5)
(96.237701416 -8.45030021667 -1.75)
(96.5427017212 -7.76514005661 -1)
(97.1416015625 -8.79726982117 -6.25)
(97.3733978271 -8.08397960663 -7)
(96.9097976685 -9.51056003571 -5.5)
(96.9097976685 -9.51056003571 -4)
(96.9097976685 -9.51056003571 -2.5)
(97.1416015625 -8.79726982117 -1.75)
(97.3733978271 -8.08397960663 -1)
(98.0767974854 -9.04786014557 -6.25)
(98.2328033447 -8.31424999237 -7)
(97.9208984375 -9.78147983551 -5.5)
(97.9208984375 -9.78147983551 -4)
(97.9208984375 -9.78147983551 -2.5)
(98.0767974854 -9.04786014557 -1.75)
(98.2328033447 -8.31424999237 -1)
(99.0330963135 -9.1993303299 -6.25)
(99.1115036011 -8.45343971252 -7)
(98.9546966553 -9.94521999359 -5.5)
(98.9546966553 -9.94521999359 -4)
(98.9546966553 -9.94521999359 -2.5)
(99.0330963135 -9.1993303299 -1.75)
(99.1115036011 -8.45343971252 -1)
(100 -9.25 -6.25)
(100 -8.5 -7)
(100 -10 -5.5)
(100 -10 -4)
(100 -10 -2.5)
(100 -9.25 -1.75)
(100 -8.5 -1)
(100.967002869 -9.1993303299 -6.25)
(100.888000488 -8.45343971252 -7)
(101.044998169 -9.94521999359 -5.5)
(101.044998169 -9.94521999359 -4)
(101.044998169 -9.94521999359 -2.5)
(100.967002869 -9.1993303299 -1.75)
(100.888000488 -8.45343971252 -1)
(101.922996521 -9.04786014557 -6.25)
(101.766998291 -8.31424999237 -7)
(102.07900238 -9.78147983551 -5.5)
(102.07900238 -9.78147983551 -4)
(102.07900238 -9.78147983551 -2.5)
(101.922996521 -9.04786014557 -1.75)
(101.766998291 -8.31424999237 -1)
(102.858001709 -8.79726982117 -6.25)
(102.626998901 -8.08397960663 -7)
(103.089996338 -9.51056003571 -5.5)
(103.089996338 -9.51056003571 -4)
(103.089996338 -9.51056003571 -2.5)
(102.858001709 -8.79726982117 -1.75)
(102.626998901 -8.08397960663 -1)
(103.762001038 -8.45030021667 -6.25)
(103.457000732 -7.76514005661 -7)
(104.067001343 -9.1354598999 -5.5)
(104.067001343 -9.1354598999 -4)
(104.067001343 -9.1354598999 -2.5)
(103.762001038 -8.45030021667 -1.75)
(103.457000732 -7.76514005661 -1)
(104.625 -8.01072978973 -6.25)
(104.25 -7.36121988297 -7)
(105 -8.66024971008 -5.5)
(105 -8.66024971008 -4)
(105 -8.66024971008 -2.5)
(104.625 -8.01072978973 -1.75)
(104.25 -7.36121988297 -1)
(105.43699646 -7.48340988159 -6.25)
(104.996002197 -6.87663984299 -7)
(105.877998352 -8.09016990662 -5.5)
(105.877998352 -8.09016990662 -4)
(105.877998352 -8.09016990662 -2.5)
(105.43699646 -7.48340988159 -1.75)
(104.996002197 -6.87663984299 -1)
(106.189002991 -6.8740901947 -6.25)
(105.68800354 -6.31673002243 -7)
(106.691001892 -7.43144989014 -5.5)
(106.691001892 -7.43144989014 -4)
(106.691001892 -7.43144989014 -2.5)
(106.189002991 -6.8740901947 -1.75)
(105.68800354 -6.31673002243 -1)
(106.874000549 -6.18945980072 -6.25)
(106.317001343 -5.68761014938 -7)
(107.430999756 -6.69130992889 -5.5)
(107.430999756 -6.69130992889 -4)
(107.430999756 -6.69130992889 -2.5)
(106.874000549 -6.18945980072 -1.75)
(106.317001343 -5.68761014938 -1)
(107.483001709 -5.4370098114 -6.25)
(106.876998901 -4.99617004395 -7)
(108.089996338 -5.87785005569 -5.5)
(108.089996338 -5.87785005569 -4)
(108.089996338 -5.87785005569 -2.5)
(107.483001709 -5.4370098114 -1.75)
(106.876998901 -4.99617004395 -1)
(108.011001587 -4.625 -6.25)
(107.361000061 -4.25 -7)
(108.660003662 -5 -5.5)
(108.660003662 -5 -4)
(108.660003662 -5 -2.5)
(108.011001587 -4.625 -1.75)
(107.361000061 -4.25 -1)
(108.449996948 -3.76231002808 -6.25)
(107.76499939 -3.45725989342 -7)
(109.135002136 -4.0673699379 -5.5)
(109.135002136 -4.0673699379 -4)
(109.135002136 -4.0673699379 -2.5)
(108.449996948 -3.76231002808 -1.75)
(107.76499939 -3.45725989342 -1)
(108.79699707 -2.85840988159 -6.25)
(108.083999634 -2.62664008141 -7)
(109.511001587 -3.09016990662 -5.5)
(109.511001587 -3.09016990662 -4)
(109.511001587 -3.09016990662 -2.5)
(108.79699707 -2.85840988159 -1.75)
(108.083999634 -2.62664008141 -1)
(109.047996521 -1.92317998409 -6.25)
(108.314002991 -1.76724994183 -7)
(109.78099823 -2.07911992073 -5.5)
(109.78099823 -2.07911992073 -4)
(109.78099823 -2.07911992073 -2.5)
(109.047996521 -1.92317998409 -1.75)
(108.314002991 -1.76724994183 -1)
(109.198997498 -0.966888010502 -6.25)
(108.45300293 -0.888491988182 -7)
(109.944999695 -1.04527997971 -5.5)
(109.944999695 -1.04527997971 -4)
(109.944999695 -1.04527997971 -2.5)
(109.198997498 -0.966888010502 -1.75)
(108.45300293 -0.888491988182 -1)
(109.25 0 -6.25)
(108.5 0 -7)
(110 0 -5.5)
(110 0 -4)
(110 0 -2.5)
(109.25 0 -1.75)
(108.5 0 -1)
(100 0 -1)
(98.5832977295 0 -1)
(98.5911026001 -0.148082002997 -1)
(97.1821975708 -0.296164005995 -1)
(97.1667022705 0 -1)
(95.7733001709 -0.444245994091 -1)
(95.75 0 -1)
(94.364402771 -0.59232801199 -1)
(94.3332977295 0 -1)
(92.9554977417 -0.740409970284 -1)
(92.9167022705 0 -1)
(98.6143035889 -0.294542014599 -1)
(97.2285995483 -0.589083015919 -1)
(95.8429031372 -0.883624970913 -1)
(94.4571990967 -1.17816996574 -1)
(93.0715026855 -1.47271001339 -1)
(98.6527023315 -0.437774002552 -1)
(97.3052978516 -0.875548005104 -1)
(95.9580001831 -1.3133200407 -1)
(94.6107025146 -1.75109994411 -1)
(93.2633972168 -2.18886995316 -1)
(98.7058029175 -0.576210021973 -1)
(97.4115982056 -1.15242004395 -1)
(96.117401123 -1.72862994671 -1)
(94.8231964111 -2.30484008789 -1)
(93.5290985107 -2.88105010986 -1)
(98.7731018066 -0.708333015442 -1)
(97.5463027954 -1.41666996479 -1)
(96.3193969727 -2.125 -1)
(95.0924987793 -2.833329916 -1)
(93.8656997681 -3.541670084 -1)
(98.8538970947 -0.832696020603 -1)
(97.7078018188 -1.66539001465 -1)
(96.5616989136 -2.49809002876 -1)
(95.4156036377 -3.3307800293 -1)
(94.2695007324 -4.16347980499 -1)
(98.9471969604 -0.947934985161 -1)
(97.8944015503 -1.89586997032 -1)
(96.8415985107 -2.84381008148 -1)
(95.7888031006 -3.79173994064 -1)
(94.7360992432 -4.73967981339 -1)
(99.0521011353 -1.05279004574 -1)
(98.1041030884 -2.10558009148 -1)
(97.1561965942 -3.15837001801 -1)
(96.2082977295 -4.21115016937 -1)
(95.2602996826 -5.26393985748 -1)
(99.1672973633 -1.14611005783 -1)
(98.334602356 -2.29222011566 -1)
(97.5018997192 -3.43831992149 -1)
(96.6691970825 -4.58443021774 -1)
(95.8365020752 -5.73053979874 -1)
(99.2917022705 -1.22686994076 -1)
(98.5832977295 -2.45373988152 -1)
(97.875 -3.68060994148 -1)
(97.1667022705 -4.90747976303 -1)
(96.4582977295 -6.134349823 -1)
(99.4237976074 -1.29419004917 -1)
(98.8476028442 -2.58838009834 -1)
(98.2714004517 -3.88257002831 -1)
(97.6951980591 -5.17676019669 -1)
(97.1188964844 -6.47095012665 -1)
(99.5622024536 -1.34732997417 -1)
(99.12449646 -2.69465994835 -1)
(98.6866989136 -4.04198980331 -1)
(98.2489013672 -5.3893198967 -1)
(97.8110961914 -6.73664999008 -1)
(99.7054977417 -1.38571000099 -1)
(99.4108963013 -2.77142000198 -1)
(99.1164016724 -4.15712976456 -1)
(98.8218002319 -5.54284000397 -1)
(98.5272979736 -6.9285402298 -1)
(99.8518981934 -1.40891003609 -1)
(99.7037963867 -2.81781005859 -1)
(99.5558013916 -4.22671985626 -1)
(99.407699585 -5.63562011719 -1)
(99.2595977783 -7.04452991486 -1)
(100 -1.41666996479 -1)
(100 -2.833329916 -1)
(100 -4.25 -1)
(100 -5.66666984558 -1)
(100 -7.08333015442 -1)
(100.148002625 -1.40891003609 -1)
(100.29599762 -2.81781005859 -1)
(100.444000244 -4.22671985626 -1)
(100.592002869 -5.63562011719 -1)
(100.739997864 -7.04452991486 -1)
(100.294998169 -1.38571000099 -1)
(100.588996887 -2.77142000198 -1)
(100.884002686 -4.15712976456 -1)
(101.178001404 -5.54284000397 -1)
(101.472999573 -6.9285402298 -1)
(100.43800354 -1.34732997417 -1)
(100.875999451 -2.69465994835 -1)
(101.31300354 -4.04198980331 -1)
(101.750999451 -5.3893198967 -1)
(102.189002991 -6.73664999008 -1)
(100.575996399 -1.29419004917 -1)
(101.152000427 -2.58838009834 -1)
(101.728996277 -3.88257002831 -1)
(102.305000305 -5.17676019669 -1)
(102.880996704 -6.47095012665 -1)
(100.708000183 -1.22686994076 -1)
(101.416999817 -2.45373988152 -1)
(102.125 -3.68060994148 -1)
(102.833000183 -4.90747976303 -1)
(103.541999817 -6.134349823 -1)
(100.833000183 -1.14611005783 -1)
(101.665000916 -2.29222011566 -1)
(102.498001099 -3.43831992149 -1)
(103.331001282 -4.58443021774 -1)
(104.163002014 -5.73053979874 -1)
(100.947998047 -1.05279004574 -1)
(101.896003723 -2.10558009148 -1)
(102.84400177 -3.15837001801 -1)
(103.791999817 -4.21115016937 -1)
(104.739997864 -5.26393985748 -1)
(101.053001404 -0.947934985161 -1)
(102.106002808 -1.89586997032 -1)
(103.157997131 -2.84381008148 -1)
(104.210998535 -3.79173994064 -1)
(105.263999939 -4.73967981339 -1)
(101.146003723 -0.832696020603 -1)
(102.291999817 -1.66539001465 -1)
(103.43800354 -2.49809002876 -1)
(104.583999634 -3.3307800293 -1)
(105.731002808 -4.16347980499 -1)
(101.226997375 -0.708333015442 -1)
(102.45400238 -1.41666996479 -1)
(103.680999756 -2.125 -1)
(104.906997681 -2.833329916 -1)
(106.134002686 -3.541670084 -1)
(101.293998718 -0.576210021973 -1)
(102.587997437 -1.15242004395 -1)
(103.883003235 -1.72862994671 -1)
(105.177001953 -2.30484008789 -1)
(106.471000671 -2.88105010986 -1)
(101.347000122 -0.437774002552 -1)
(102.694999695 -0.875548005104 -1)
(104.041999817 -1.3133200407 -1)
(105.388999939 -1.75109994411 -1)
(106.736999512 -2.18886995316 -1)
(101.386001587 -0.294542014599 -1)
(102.771003723 -0.589083015919 -1)
(104.156997681 -0.883624970913 -1)
(105.542999268 -1.17816996574 -1)
(106.929000854 -1.47271001339 -1)
(101.408996582 -0.148082002997 -1)
(102.818000793 -0.296164005995 -1)
(104.226997375 -0.444245994091 -1)
(105.636001587 -0.59232801199 -1)
(107.044998169 -0.740409970284 -1)
(101.416999817 0 -1)
(102.833000183 0 -1)
(104.25 0 -1)
(105.666999817 0 -1)
(107.083000183 0 -1)
(100 0 -7)
(98.5911026001 -0.148082002997 -7)
(98.5832977295 0 -7)
(97.1667022705 0 -7)
(97.1821975708 -0.296164005995 -7)
(95.75 0 -7)
(95.7733001709 -0.444245994091 -7)
(94.3332977295 0 -7)
(94.364402771 -0.59232801199 -7)
(92.9167022705 0 -7)
(92.9554977417 -0.740409970284 -7)
(98.6143035889 -0.294542014599 -7)
(97.2285995483 -0.589083015919 -7)
(95.8429031372 -0.883624970913 -7)
(94.4571990967 -1.17816996574 -7)
(93.0715026855 -1.47271001339 -7)
(98.6527023315 -0.437774002552 -7)
(97.3052978516 -0.875548005104 -7)
(95.9580001831 -1.3133200407 -7)
(94.6107025146 -1.75109994411 -7)
(93.2633972168 -2.18886995316 -7)
(98.7058029175 -0.576210021973 -7)
(97.4115982056 -1.15242004395 -7)
(96.117401123 -1.72862994671 -7)
(94.8231964111 -2.30484008789 -7)
(93.5290985107 -2.88105010986 -7)
(98.7731018066 -0.708333015442 -7)
(97.5463027954 -1.41666996479 -7)
(96.3193969727 -2.125 -7)
(95.0924987793 -2.833329916 -7)
(93.8656997681 -3.541670084 -7)
(98.8538970947 -0.832696020603 -7)
(97.7078018188 -1.66539001465 -7)
(96.5616989136 -2.49809002876 -7)
(95.4156036377 -3.3307800293 -7)
(94.2695007324 -4.16347980499 -7)
(98.9471969604 -0.947934985161 -7)
(97.8944015503 -1.89586997032 -7)
(96.8415985107 -2.84381008148 -7)
(95.7888031006 -3.79173994064 -7)
(94.7360992432 -4.73967981339 -7)
(99.0521011353 -1.05279004574 -7)
(98.1041030884 -2.10558009148 -7)
(97.1561965942 -3.15837001801 -7)
(96.2082977295 -4.21115016937 -7)
(95.2602996826 -5.26393985748 -7)
(99.1672973633 -1.14611005783 -7)
(98.334602356 -2.29222011566 -7)
(97.5018997192 -3.43831992149 -7)
(96.6691970825 -4.58443021774 -7)
(95.8365020752 -5.73053979874 -7)
(99.2917022705 -1.22686994076 -7)
(98.5832977295 -2.45373988152 -7)
(97.875 -3.68060994148 -7)
(97.1667022705 -4.90747976303 -7)
(96.4582977295 -6.134349823 -7)
(99.4237976074 -1.29419004917 -7)
(98.8476028442 -2.58838009834 -7)
(98.2714004517 -3.88257002831 -7)
(97.6951980591 -5.17676019669 -7)
(97.1188964844 -6.47095012665 -7)
(99.5622024536 -1.34732997417 -7)
(99.12449646 -2.69465994835 -7)
(98.6866989136 -4.04198980331 -7)
(98.2489013672 -5.3893198967 -7)
(97.8110961914 -6.73664999008 -7)
(99.7054977417 -1.38571000099 -7)
(99.4108963013 -2.77142000198 -7)
(99.1164016724 -4.15712976456 -7)
(98.8218002319 -5.54284000397 -7)
(98.5272979736 -6.9285402298 -7)
(99.8518981934 -1.40891003609 -7)
(99.7037963867 -2.81781005859 -7)
(99.5558013916 -4.22671985626 -7)
(99.407699585 -5.63562011719 -7)
(99.2595977783 -7.04452991486 -7)
(100 -1.41666996479 -7)
(100 -2.833329916 -7)
(100 -4.25 -7)
(100 -5.66666984558 -7)
(100 -7.08333015442 -7)
(100.148002625 -1.40891003609 -7)
(100.29599762 -2.81781005859 -7)
(100.444000244 -4.22671985626 -7)
(100.592002869 -5.63562011719 -7)
(100.739997864 -7.04452991486 -7)
(100.294998169 -1.38571000099 -7)
(100.588996887 -2.77142000198 -7)
(100.884002686 -4.15712976456 -7)
(101.178001404 -5.54284000397 -7)
(101.472999573 -6.9285402298 -7)
(100.43800354 -1.34732997417 -7)
(100.875999451 -2.69465994835 -7)
(101.31300354 -4.04198980331 -7)
(101.750999451 -5.3893198967 -7)
(102.189002991 -6.73664999008 -7)
(100.575996399 -1.29419004917 -7)
(101.152000427 -2.58838009834 -7)
(101.728996277 -3.88257002831 -7)
(102.305000305 -5.17676019669 -7)
(102.880996704 -6.47095012665 -7)
(100.708000183 -1.22686994076 -7)
(101.416999817 -2.45373988152 -7)
(102.125 -3.68060994148 -7)
(102.833000183 -4.90747976303 -7)
(103.541999817 -6.134349823 -7)
(100.833000183 -1.14611005783 -7)
(101.665000916 -2.29222011566 -7)
(102.498001099 -3.43831992149 -7)
(103.331001282 -4.58443021774 -7)
(104.163002014 -5.73053979874 -7)
(100.947998047 -1.05279004574 -7)
(101.896003723 -2.10558009148 -7)
(102.84400177 -3.15837001801 -7)
(103.791999817 -4.21115016937 -7)
(104.739997864 -5.26393985748 -7)
(101.053001404 -0.947934985161 -7)
(102.106002808 -1.89586997032 -7)
(103.157997131 -2.84381008148 -7)
(104.210998535 -3.79173994064 -7)
(105.263999939 -4.73967981339 -7)
(101.146003723 -0.832696020603 -7)
(102.291999817 -1.66539001465 -7)
(103.43800354 -2.49809002876 -7)
(104.583999634 -3.3307800293 -7)
(105.731002808 -4.16347980499 -7)
(101.226997375 -0.708333015442 -7)
(102.45400238 -1.41666996479 -7)
(103.680999756 -2.125 -7)
(104.906997681 -2.833329916 -7)
(106.134002686 -3.541670084 -7)
(101.293998718 -0.576210021973 -7)
(102.587997437 -1.15242004395 -7)
(103.883003235 -1.72862994671 -7)
(105.177001953 -2.30484008789 -7)
(106.471000671 -2.88105010986 -7)
(101.347000122 -0.437774002552 -7)
(102.694999695 -0.875548005104 -7)
(104.041999817 -1.3133200407 -7)
(105.388999939 -1.75109994411 -7)
(106.736999512 -2.18886995316 -7)
(101.386001587 -0.294542014599 -7)
(102.771003723 -0.589083015919 -7)
(104.156997681 -0.883624970913 -7)
(105.542999268 -1.17816996574 -7)
(106.929000854 -1.47271001339 -7)
(101.408996582 -0.148082002997 -7)
(102.818000793 -0.296164005995 -7)
(104.226997375 -0.444245994091 -7)
(105.636001587 -0.59232801199 -7)
(107.044998169 -0.740409970284 -7)
(101.416999817 0 -7)
(102.833000183 0 -7)
(104.25 0 -7)
(105.666999817 0 -7)
(107.083000183 0 -7)
(91.5466003418 0.888491988182 -7)
(90.8006973267 0.966888010502 -6.25)
(90.0548019409 1.04527997971 -5.5)
(90.0548019409 1.04527997971 -4)
(90.0548019409 1.04527997971 -2.5)
(90.8006973267 0.966888010502 -1.75)
(91.5 0 -1)
(91.5466003418 0.888491988182 -1)
(91.6856994629 1.76724994183 -7)
(90.9521026611 1.92317998409 -6.25)
(90.21849823 2.07911992073 -5.5)
(90.21849823 2.07911992073 -4)
(90.21849823 2.07911992073 -2.5)
(90.9521026611 1.92317998409 -1.75)
(91.6856994629 1.76724994183 -1)
(91.9160003662 2.62664008141 -7)
(91.2026977539 2.85840988159 -6.25)
(90.489402771 3.09016990662 -5.5)
(90.489402771 3.09016990662 -4)
(90.489402771 3.09016990662 -2.5)
(91.2026977539 2.85840988159 -1.75)
(91.9160003662 2.62664008141 -1)
(92.2349014282 3.45725989342 -7)
(91.549697876 3.76231002808 -6.25)
(90.8645019531 4.0673699379 -5.5)
(90.8645019531 4.0673699379 -4)
(90.8645019531 4.0673699379 -2.5)
(91.549697876 3.76231002808 -1.75)
(92.2349014282 3.45725989342 -1)
(92.6388015747 4.25 -7)
(91.9893035889 4.625 -6.25)
(91.3396987915 5 -5.5)
(91.3396987915 5 -4)
(91.3396987915 5 -2.5)
(91.9893035889 4.625 -1.75)
(92.6388015747 4.25 -1)
(93.1233978271 4.99617004395 -7)
(92.5166015625 5.4370098114 -6.25)
(91.9097976685 5.87785005569 -5.5)
(91.9097976685 5.87785005569 -4)
(91.9097976685 5.87785005569 -2.5)
(92.5166015625 5.4370098114 -1.75)
(93.1233978271 4.99617004395 -1)
(93.6832962036 5.68761014938 -7)
(93.1259002686 6.18945980072 -6.25)
(92.5686035156 6.69130992889 -5.5)
(92.5686035156 6.69130992889 -4)
(92.5686035156 6.69130992889 -2.5)
(93.1259002686 6.18945980072 -1.75)
(93.6832962036 5.68761014938 -1)
(94.3124008179 6.31673002243 -7)
(93.8105010986 6.8740901947 -6.25)
(93.3087005615 7.43144989014 -5.5)
(93.3087005615 7.43144989014 -4)
(93.3087005615 7.43144989014 -2.5)
(93.8105010986 6.8740901947 -1.75)
(94.3124008179 6.31673002243 -1)
(95.0037994385 6.87663984299 -7)
(94.56300354 7.48340988159 -6.25)
(94.1221008301 8.09016990662 -5.5)
(94.1221008301 8.09016990662 -4)
(94.1221008301 8.09016990662 -2.5)
(94.56300354 7.48340988159 -1.75)
(95.0037994385 6.87663984299 -1)
(95.75 7.36121988297 -7)
(95.375 8.01072978973 -6.25)
(95 8.66024971008 -5.5)
(95 8.66024971008 -4)
(95 8.66024971008 -2.5)
(95.375 8.01072978973 -1.75)
(95.75 7.36121988297 -1)
(96.5427017212 7.76514005661 -7)
(96.237701416 8.45030021667 -6.25)
(95.9326019287 9.1354598999 -5.5)
(95.9326019287 9.1354598999 -4)
(95.9326019287 9.1354598999 -2.5)
(96.237701416 8.45030021667 -1.75)
(96.5427017212 7.76514005661 -1)
(97.3733978271 8.08397960663 -7)
(97.1416015625 8.79726982117 -6.25)
(96.9097976685 9.51056003571 -5.5)
(96.9097976685 9.51056003571 -4)
(96.9097976685 9.51056003571 -2.5)
(97.1416015625 8.79726982117 -1.75)
(97.3733978271 8.08397960663 -1)
(98.2328033447 8.31424999237 -7)
(98.0767974854 9.04786014557 -6.25)
(97.9208984375 9.78147983551 -5.5)
(97.9208984375 9.78147983551 -4)
(97.9208984375 9.78147983551 -2.5)
(98.0767974854 9.04786014557 -1.75)
(98.2328033447 8.31424999237 -1)
(99.1115036011 8.45343971252 -7)
(99.0330963135 9.1993303299 -6.25)
(98.9546966553 9.94521999359 -5.5)
(98.9546966553 9.94521999359 -4)
(98.9546966553 9.94521999359 -2.5)
(99.0330963135 9.1993303299 -1.75)
(99.1115036011 8.45343971252 -1)
(100 8.5 -7)
(100 9.25 -6.25)
(100 10 -5.5)
(100 10 -4)
(100 10 -2.5)
(100 9.25 -1.75)
(100 8.5 -1)
(100.888000488 8.45343971252 -7)
(100.967002869 9.1993303299 -6.25)
(101.044998169 9.94521999359 -5.5)
(101.044998169 9.94521999359 -4)
(101.044998169 9.94521999359 -2.5)
(100.967002869 9.1993303299 -1.75)
(100.888000488 8.45343971252 -1)
(101.766998291 8.31424999237 -7)
(101.922996521 9.04786014557 -6.25)
(102.07900238 9.78147983551 -5.5)
(102.07900238 9.78147983551 -4)
(102.07900238 9.78147983551 -2.5)
(101.922996521 9.04786014557 -1.75)
(101.766998291 8.31424999237 -1)
(102.626998901 8.08397960663 -7)
(102.858001709 8.79726982117 -6.25)
(103.089996338 9.51056003571 -5.5)
(103.089996338 9.51056003571 -4)
(103.089996338 9.51056003571 -2.5)
(102.858001709 8.79726982117 -1.75)
(102.626998901 8.08397960663 -1)
(103.457000732 7.76514005661 -7)
(103.762001038 8.45030021667 -6.25)
(104.067001343 9.1354598999 -5.5)
(104.067001343 9.1354598999 -4)
(104.067001343 9.1354598999 -2.5)
(103.762001038 8.45030021667 -1.75)
(103.457000732 7.76514005661 -1)
(104.25 7.36121988297 -7)
(104.625 8.01072978973 -6.25)
(105 8.66024971008 -5.5)
(105 8.66024971008 -4)
(105 8.66024971008 -2.5)
(104.625 8.01072978973 -1.75)
(104.25 7.36121988297 -1)
(104.996002197 6.87663984299 -7)
(105.43699646 7.48340988159 -6.25)
(105.877998352 8.09016990662 -5.5)
(105.877998352 8.09016990662 -4)
(105.877998352 8.09016990662 -2.5)
(105.43699646 7.48340988159 -1.75)
(104.996002197 6.87663984299 -1)
(105.68800354 6.31673002243 -7)
(106.189002991 6.8740901947 -6.25)
(106.691001892 7.43144989014 -5.5)
(106.691001892 7.43144989014 -4)
(106.691001892 7.43144989014 -2.5)
(106.189002991 6.8740901947 -1.75)
(105.68800354 6.31673002243 -1)
(106.317001343 5.68761014938 -7)
(106.874000549 6.18945980072 -6.25)
(107.430999756 6.69130992889 -5.5)
(107.430999756 6.69130992889 -4)
(107.430999756 6.69130992889 -2.5)
(106.874000549 6.18945980072 -1.75)
(106.317001343 5.68761014938 -1)
(106.876998901 4.99617004395 -7)
(107.483001709 5.4370098114 -6.25)
(108.089996338 5.87785005569 -5.5)
(108.089996338 5.87785005569 -4)
(108.089996338 5.87785005569 -2.5)
(107.483001709 5.4370098114 -1.75)
(106.876998901 4.99617004395 -1)
(107.361000061 4.25 -7)
(108.011001587 4.625 -6.25)
(108.660003662 5 -5.5)
(108.660003662 5 -4)
(108.660003662 5 -2.5)
(108.011001587 4.625 -1.75)
(107.361000061 4.25 -1)
(107.76499939 3.45725989342 -7)
(108.449996948 3.76231002808 -6.25)
(109.135002136 4.0673699379 -5.5)
(109.135002136 4.0673699379 -4)
(109.135002136 4.0673699379 -2.5)
(108.449996948 3.76231002808 -1.75)
(107.76499939 3.45725989342 -1)
(108.083999634 2.62664008141 -7)
(108.79699707 2.85840988159 -6.25)
(109.511001587 3.09016990662 -5.5)
(109.511001587 3.09016990662 -4)
(109.511001587 3.09016990662 -2.5)
(108.79699707 2.85840988159 -1.75)
(108.083999634 2.62664008141 -1)
(108.314002991 1.76724994183 -7)
(109.047996521 1.92317998409 -6.25)
(109.78099823 2.07911992073 -5.5)
(109.78099823 2.07911992073 -4)
(109.78099823 2.07911992073 -2.5)
(109.047996521 1.92317998409 -1.75)
(108.314002991 1.76724994183 -1)
(108.45300293 0.888491988182 -7)
(109.198997498 0.966888010502 -6.25)
(109.944999695 1.04527997971 -5.5)
(109.944999695 1.04527997971 -4)
(109.944999695 1.04527997971 -2.5)
(109.198997498 0.966888010502 -1.75)
(108.45300293 0.888491988182 -1)
(98.5911026001 0.148082002997 -1)
(97.1821975708 0.296164005995 -1)
(95.7733001709 0.444245994091 -1)
(94.364402771 0.59232801199 -1)
(92.9554977417 0.740409970284 -1)
(98.6143035889 0.294542014599 -1)
(97.2285995483 0.589083015919 -1)
(95.8429031372 0.883624970913 -1)
(94.4571990967 1.17816996574 -1)
(93.0715026855 1.47271001339 -1)
(98.6527023315 0.437774002552 -1)
(97.3052978516 0.875548005104 -1)
(95.9580001831 1.3133200407 -1)
(94.6107025146 1.75109994411 -1)
(93.2633972168 2.18886995316 -1)
(98.7058029175 0.576210021973 -1)
(97.4115982056 1.15242004395 -1)
(96.117401123 1.72862994671 -1)
(94.8231964111 2.30484008789 -1)
(93.5290985107 2.88105010986 -1)
(98.7731018066 0.708333015442 -1)
(97.5463027954 1.41666996479 -1)
(96.3193969727 2.125 -1)
(95.0924987793 2.833329916 -1)
(93.8656997681 3.541670084 -1)
(98.8538970947 0.832696020603 -1)
(97.7078018188 1.66539001465 -1)
(96.5616989136 2.49809002876 -1)
(95.4156036377 3.3307800293 -1)
(94.2695007324 4.16347980499 -1)
(98.9471969604 0.947934985161 -1)
(97.8944015503 1.89586997032 -1)
(96.8415985107 2.84381008148 -1)
(95.7888031006 3.79173994064 -1)
(94.7360992432 4.73967981339 -1)
(99.0521011353 1.05279004574 -1)
(98.1041030884 2.10558009148 -1)
(97.1561965942 3.15837001801 -1)
(96.2082977295 4.21115016937 -1)
(95.2602996826 5.26393985748 -1)
(99.1672973633 1.14611005783 -1)
(98.334602356 2.29222011566 -1)
(97.5018997192 3.43831992149 -1)
(96.6691970825 4.58443021774 -1)
(95.8365020752 5.73053979874 -1)
(99.2917022705 1.22686994076 -1)
(98.5832977295 2.45373988152 -1)
(97.875 3.68060994148 -1)
(97.1667022705 4.90747976303 -1)
(96.4582977295 6.134349823 -1)
(99.4237976074 1.29419004917 -1)
(98.8476028442 2.58838009834 -1)
(98.2714004517 3.88257002831 -1)
(97.6951980591 5.17676019669 -1)
(97.1188964844 6.47095012665 -1)
(99.5622024536 1.34732997417 -1)
(99.12449646 2.69465994835 -1)
(98.6866989136 4.04198980331 -1)
(98.2489013672 5.3893198967 -1)
(97.8110961914 6.73664999008 -1)
(99.7054977417 1.38571000099 -1)
(99.4108963013 2.77142000198 -1)
(99.1164016724 4.15712976456 -1)
(98.8218002319 5.54284000397 -1)
(98.5272979736 6.9285402298 -1)
(99.8518981934 1.40891003609 -1)
(99.7037963867 2.81781005859 -1)
(99.5558013916 4.22671985626 -1)
(99.407699585 5.63562011719 -1)
(99.2595977783 7.04452991486 -1)
(100 1.41666996479 -1)
(100 2.833329916 -1)
(100 4.25 -1)
(100 5.66666984558 -1)
(100 7.08333015442 -1)
(100.148002625 1.40891003609 -1)
(100.29599762 2.81781005859 -1)
(100.444000244 4.22671985626 -1)
(100.592002869 5.63562011719 -1)
(100.739997864 7.04452991486 -1)
(100.294998169 1.38571000099 -1)
(100.588996887 2.77142000198 -1)
(100.884002686 4.15712976456 -1)
(101.178001404 5.54284000397 -1)
(101.472999573 6.9285402298 -1)
(100.43800354 1.34732997417 -1)
(100.875999451 2.69465994835 -1)
(101.31300354 4.04198980331 -1)
(101.750999451 5.3893198967 -1)
(102.189002991 6.73664999008 -1)
(100.575996399 1.29419004917 -1)
(101.152000427 2.58838009834 -1)
(101.728996277 3.88257002831 -1)
(102.305000305 5.17676019669 -1)
(102.880996704 6.47095012665 -1)
(100.708000183 1.22686994076 -1)
(101.416999817 2.45373988152 -1)
(102.125 3.68060994148 -1)
(102.833000183 4.90747976303 -1)
(103.541999817 6.134349823 -1)
(100.833000183 1.14611005783 -1)
(101.665000916 2.29222011566 -1)
(102.498001099 3.43831992149 -1)
(103.331001282 4.58443021774 -1)
(104.163002014 5.73053979874 -1)
(100.947998047 1.05279004574 -1)
(101.896003723 2.10558009148 -1)
(102.84400177 3.15837001801 -1)
(103.791999817 4.21115016937 -1)
(104.739997864 5.26393985748 -1)
(101.053001404 0.947934985161 -1)
(102.106002808 1.89586997032 -1)
(103.157997131 2.84381008148 -1)
(104.210998535 3.79173994064 -1)
(105.263999939 4.73967981339 -1)
(101.146003723 0.832696020603 -1)
(102.291999817 1.66539001465 -1)
(103.43800354 2.49809002876 -1)
(104.583999634 3.3307800293 -1)
(105.731002808 4.16347980499 -1)
(101.226997375 0.708333015442 -1)
(102.45400238 1.41666996479 -1)
(103.680999756 2.125 -1)
(104.906997681 2.833329916 -1)
(106.134002686 3.541670084 -1)
(101.293998718 0.576210021973 -1)
(102.587997437 1.15242004395 -1)
(103.883003235 1.72862994671 -1)
(105.177001953 2.30484008789 -1)
(106.471000671 2.88105010986 -1)
(101.347000122 0.437774002552 -1)
(102.694999695 0.875548005104 -1)
(104.041999817 1.3133200407 -1)
(105.388999939 1.75109994411 -1)
(106.736999512 2.18886995316 -1)
(101.386001587 0.294542014599 -1)
(102.771003723 0.589083015919 -1)
(104.156997681 0.883624970913 -1)
(105.542999268 1.17816996574 -1)
(106.929000854 1.47271001339 -1)
(101.408996582 0.148082002997 -1)
(102.818000793 0.296164005995 -1)
(104.226997375 0.444245994091 -1)
(105.636001587 0.59232801199 -1)
(107.044998169 0.740409970284 -1)
(98.5911026001 0.148082002997 -7)
(97.1821975708 0.296164005995 -7)
(95.7733001709 0.444245994091 -7)
(94.364402771 0.59232801199 -7)
(92.9554977417 0.740409970284 -7)
(98.6143035889 0.294542014599 -7)
(97.2285995483 0.589083015919 -7)
(95.8429031372 0.883624970913 -7)
(94.4571990967 1.17816996574 -7)
(93.0715026855 1.47271001339 -7)
(98.6527023315 0.437774002552 -7)
(97.3052978516 0.875548005104 -7)
(95.9580001831 1.3133200407 -7)
(94.6107025146 1.75109994411 -7)
(93.2633972168 2.18886995316 -7)
(98.7058029175 0.576210021973 -7)
(97.4115982056 1.15242004395 -7)
(96.117401123 1.72862994671 -7)
(94.8231964111 2.30484008789 -7)
(93.5290985107 2.88105010986 -7)
(98.7731018066 0.708333015442 -7)
(97.5463027954 1.41666996479 -7)
(96.3193969727 2.125 -7)
(95.0924987793 2.833329916 -7)
(93.8656997681 3.541670084 -7)
(98.8538970947 0.832696020603 -7)
(97.7078018188 1.66539001465 -7)
(96.5616989136 2.49809002876 -7)
(95.4156036377 3.3307800293 -7)
(94.2695007324 4.16347980499 -7)
(98.9471969604 0.947934985161 -7)
(97.8944015503 1.89586997032 -7)